*Node
1,61.53057865564146,0.3286234282965269,0.6716720603281431
2,61.22285384714827,0.211740235600432,0.7891177179758418
3,61.40004505403815,0,0.6542204298291315
4,61.60053734576606,0.1870344617770225,0.8135372210746522
5,83.89682070554429,0,0.4829366185417917
6,83.89948483893301,0.3514505990967959,0.6488817033743136
7,83.99955494620171,0,0.6545135290173203
8,84.09958264917299,0.2603999421904318,0.4749843424207276
9,36.49983835775073,0,0.1691678641227552
10,36.6999978737167,0.2919647847488328,0.2919647847507299
11,36.4998383577508,0.1691678641208872,0
12,36.36666774125553,0.233628716200924,0.2336286958792646
13,8.799959657781457,0,0.65402803748598
14,8.899883775204239,0.3513320715531758,0.6494848738096728
15,8.899963716151754,0,0.4822846129417551
16,8.700682018983789,0.2606656799563037,0.4762096328547987
17,25.59939594195659,0,0.6541690969595968
18,25.79955494620177,0,0.6545135289685461
19,25.6968207055355,0,0.4829366184858603
20,25.54874319322866,0.2437752214549769,0.4930327180416065
** ... 16796 like lines cut
*Element, type=C3D4
1,1,2,3,4
2,5,6,7,8
3,9,10,11,12
4,13,14,15,16
5,17,18,19,20
6,21,22,23,24
7,25,26,27,28
8,29,30,31,32
9,33,34,35,36
10,37,38,39,40
11,41,42,43,44
12,45,46,47,48
13,49,50,51,52
14,17,53,18,20
15,54,55,56,57
16,58,59,60,61
17,62,63,64,65
18,18,53,19,20
19,66,67,68,69
20,70,71,72,73
** ... 64176 like lines cut
*FEM Nodes
All
*FEM Elements
All
*SOLVER, IMPLICIT STATIC
*Number Of Steps
100
*Outputs
100
All,max
*Relative Tolerance
1e-12
*Time
0,10
*BOUNDARY, TYPE=DISPLACEMENT INST
11786,1,0
16815,1,0
16809,1,0
16816,1,0
16810,1,0
15843,1,0
13205,1,0
15970,1,0
14737,1,0
12729,1,0
16512,1,0
16089,1,0
16750,1,0
16761,1,0
14651,1,0
15022,1,0
16742,1,0
16695,1,0
15606,1,0
15718,1,0
** ... 24236 like lines cut
*EXTRACTION, NODE
SurfaceDisplacement,Unknown,Rough,0
11786
16815
16809
16816
16810
15843
13205
15970
14737
12729
16512
16089
16750
16761
14651
15022
16742
16695
15606
15718
** ... 24 like lines cut
*END SOLVER
*BOUNDARY, TYPE=PRESSURE INST
0,10,0.1,3
55513
45126
59719
60744
61481
61482
42061
49294
58031
61465
44283
44220
61471
*BOUNDARY, TYPE=PRESSURE INST
0,10,0.1,1
20865
54024
49042
31762
60053
46617
9115
61467
36768
61473
30373
61478
47655
54316
47789
60976
58676
61240
60731
** ... 22 like lines cut
*BOUNDARY, TYPE=PRESSURE INST
0,10,0.1,4
54859
57627
55796
61813
*BOUNDARY, TYPE=PRESSURE INST
0,10,0.1,2
61287
61485
61486
57554
54323
59829
61015
61468
*FLUX EXTRADOF, TYPE=HEAT INST
0,10,0,0,0,1
58624
56962
61318
52872
56328
49425
61458
61463
61464
57626
54811
61472
61475
24228
61477
61476
61479
61480
50347
** ... 24 like lines cut
*FLUX EXTRADOF, TYPE=HEAT INST
0,10,0,0,0,3
61474
48546
61483
59755
55119
61204
63222
53049
61469
*FLUX EXTRADOF, TYPE=HEAT INST
0,10,0,0,0,2
57760
60734
49293
60975
59631
49009
60754
57558
57559
61082
61406
*FLUX EXTRADOF, TYPE=HEAT INST
0,10,0,0,0,4
44282
57276
52405
*FLUX EXTRADOF, TYPE=HEAT INST
0,10,0,0,0,1
5
28
33
32812
32830
32890
131
32903
160
32939
32943
32946
237
33009
33020
256
273
33049
33051
** ... 5134 like lines cut
*FLUX EXTRADOF, TYPE=HEAT INST
0,10,0,0,0,3
59392
61444
61447
61449
61450
61451
61452
59414
61467
59419
59425
59429
61480
59438
61491
43060
43072
59461
61517
** ... 382 like lines cut
*FLUX EXTRADOF, TYPE=HEAT INST
0,10,0,0,0,2
61441
61443
59399
43051
43052
59440
61489
59451
61602
61604
61612
45234
59576
59578
59595
41175
59615
59620
41195
** ... 297 like lines cut
*FLUX EXTRADOF, TYPE=HEAT INST
0,10,0,0,0,4
48132
62468
62470
64013
43534
43537
41490
62486
40982
62494
39455
63007
36385
61999
56377
63545
45120
40001
40002
** ... 119 like lines cut
*FLUX EXTRADOF, TYPE=HEAT INST
0,10,0,0,0,1
32787
32794
32796
46
32817
32825
32843
32850
32853
32854
32861
32865
32871
32876
32882
32886
32899
32916
189
** ... 4958 like lines cut
*FLUX EXTRADOF, TYPE=HEAT INST
0,10,0,0,0,2
59393
59397
59398
59403
59404
40977
59412
61464
59416
61470
59424
59427
59434
41005
61488
59442
41016
41018
59450
** ... 377 like lines cut
*FLUX EXTRADOF, TYPE=HEAT INST
0,10,0,0,0,3
59394
59395
40967
59407
59409
59413
59415
61466
61472
61473
59428
61479
59437
59441
61490
59446
61494
59452
63551
** ... 361 like lines cut
*FLUX EXTRADOF, TYPE=HEAT INST
0,10,0,0,0,4
58884
58889
39949
58894
39951
40976
40975
59405
62478
59925
59926
59418
59420
59421
58910
36383
58913
39971
59430
** ... 236 like lines cut
*FLUX EXTRADOF, TYPE=HEAT INST
0,10,0,0,0,1
32776
32820
32826
60
32834
32846
32864
32868
32897
32920
166
170
176
182
195
32972
32992
32996
33037
** ... 5135 like lines cut
*FLUX EXTRADOF, TYPE=HEAT INST
0,10,0,0,0,3
63491
63493
59401
59411
59426
61477
61484
59436
61488
59447
59473
63569
59482
61537
61542
59511
63640
61596
61601
** ... 353 like lines cut
*FLUX EXTRADOF, TYPE=HEAT INST
0,10,0,0,0,2
61456
59408
59410
59430
45107
61493
59456
59467
59503
36984
59539
59556
41127
59570
59573
59582
59584
59589
59604
** ... 310 like lines cut
*FLUX EXTRADOF, TYPE=HEAT INST
0,10,0,0,0,4
37890
43015
43531
62492
43549
37404
44063
62498
62500
63013
39976
42031
41521
43071
37439
64067
37962
45134
43599
** ... 134 like lines cut
*FLUX EXTRADOF, TYPE=HEAT INST
0,10,0,0,0,1
32805
32821
32870
110
32878
32898
143
32918
32926
32941
32968
207
210
32991
32997
33004
247
33030
33034
** ... 5052 like lines cut
*FLUX EXTRADOF, TYPE=HEAT INST
0,10,0,0,0,2
59400
59405
40974
36882
59418
59420
59421
59422
61478
59432
59435
41009
61492
59445
59444
59449
59453
59454
59455
** ... 314 like lines cut
*FLUX EXTRADOF, TYPE=HEAT INST
0,10,0,0,0,3
63490
59402
59406
61470
59423
36901
59431
59433
61487
59443
59448
59457
59459
59471
61524
59478
59480
59481
61528
** ... 372 like lines cut
*FLUX EXTRADOF, TYPE=HEAT INST
0,10,0,0,0,4
59393
58882
58881
61953
36360
40973
39955
42516
58900
62484
36376
39961
36378
58904
58905
40990
40994
40995
43556
** ... 194 like lines cut
*MATERIAL, name=Mat1
*Density
0.000977
*Linear-Poroelastic
21,0.35,1.0
*ExtraDof
*DarcyLaw
1e-06,2.67e-05,33.3,1.0
*List of Elements
All
*INITIAL CONDITIONS EXTRADOF
0.0
*END