*Node
1,10,-5
2,10.16666666666667,-5
3,10.16666666666667,-4.642857142857143
4,10,-4.642857142857143
5,10.33333333333333,-5
6,10.33333333333333,-4.642857142857143
7,10.5,-5
8,10.5,-4.642857142857143
9,10.66666666666667,-5
10,10.66666666666667,-4.642857142857143
11,10.83333333333333,-5
12,10.83333333333333,-4.642857142857143
13,11,-5
14,11,-4.642857142857143
15,11.16666666666667,-5
16,11.16666666666667,-4.642857142857143
17,11.33333333333333,-5
18,11.33333333333333,-4.642857142857143
19,11.5,-5
20,11.5,-4.642857142857143
** ... 1749 like lines cut
*Element, type=CPE4
1,1,2,3,4
2,2,5,6,3
3,5,7,8,6
4,7,9,10,8
5,9,11,12,10
6,11,13,14,12
7,13,15,16,14
8,15,17,18,16
9,17,19,20,18
10,19,21,22,20
11,21,23,24,22
12,23,25,26,24
13,25,27,28,26
14,27,29,30,28
15,29,31,32,30
16,31,33,34,32
17,33,35,36,34
18,35,37,38,36
19,37,39,40,38
20,39,41,42,40
** ... 1660 like lines cut
*FEM Nodes
All
*FEM Elements
All
*SOLVER, IMPLICIT STATIC
*Number Of Steps
1000
*Relative Tolerance
1e-08
*Outputs
1000
All,max
*Time
0,100
*BOUNDARY, TYPE=DISPLACEMENT INST
121,0,0
1769,0,0
122,0,0
183,0,0
244,0,0
305,0,0
366,0,0
427,0,0
488,0,0
549,0,0
610,0,0
671,0,0
732,0,0
793,0,0
854,0,0
915,0,0
976,0,0
1037,0,0
1098,0,0
1159,0,0
** ... 158 like lines cut
*FSI
1
1283
4
1161
1039
917
795
673
551
429
1710
307
1588
185
1466
1344
1222
1100
978
856
** ... 9 like lines cut
*ELEMENT FSI
1381,4
241,4
901,4
661,4
181,4
1561,4
421,4
1321,4
841,4
1081,4
361,4
601,4
1501,4
1261,4
121,4
1021,4
541,4
781,4
1441,4
301,4
** ... 8 like lines cut
*EXTRACTION, NODE
Displacement_x,Unknown,Rough,0
1
1710
4
124
185
246
307
368
429
490
551
612
673
734
795
856
917
978
1039
1100
** ... 9 like lines cut
*END SOLVER
*MATERIAL, name=Mat1
*Density
0.000977
*Linear-Poroelastic
21,0.35,1,PlaneStrain
*ExtraDof
*DarcyLaw
1e-06,2.67e-05,33.3,1
*List of Elements
All
*END