*Node
1,42.6106020827723,0.7263354645299289,0
2,43.17038475772939,0.4614359353945467,0.5385640646055087
3,42.6,1,0.2692820323027548
4,42.37038475772925,0.4614359353944338,0.5385640646055663
5,87.39101212636537,1,0.2756839503859127
6,87.40303027596006,0.7280584672318771,0
7,87.89332758225655,0.5,0.4995450328466187
8,87.16513791489241,0.4496416755687807,0.5504640723242618
9,22.19999999999999,1,0.2692820323027643
10,21.97187408297076,0.4633752892685571,0.5381069230468736
11,22.2,0.7307179676972451,0
12,22.77038475772936,0.4614359353944937,0.5385640646055064
13,59.79999999999998,0.7307179676972397,0
14,59.79999999999997,1,0.2692820323027742
15,59.57257673078727,0.4635320949988928,0.5357097441900831
16,60.37038475772945,0.4614359353944995,0.5385640646055097
17,91.8666666666663,0,0.666666666666629
18,91.22961524227074,0.5385640646052735,0.4573535549897901
19,91.80000000000025,0.2692820323029386,1
20,92.06988747218834,0.5557868753294464,0.5445851446196437
** ... 3256 like lines cut
*Element, type=C3D4
1,1,2,3,4
2,5,6,7,8
3,9,10,11,12
4,13,14,15,16
5,17,18,19,20
6,21,22,23,24
7,25,26,27,28
8,29,30,31,32
9,33,34,35,36
10,1,37,3,2
11,38,39,40,41
12,42,43,44,45
13,46,47,48,49
14,50,51,52,53
15,54,55,56,4
16,57,58,59,60
17,61,9,11,12
18,13,62,14,16
19,63,64,65,66
20,67,68,69,70
** ... 8603 like lines cut
*FEM Nodes
All
*FEM Elements
All
*SOLVER, IMPLICIT STATIC
*Number Of Steps
100
*Outputs
1000
All,max
*Absolute Tolerance
1e-06
*Time
0,10
*BOUNDARY, TYPE=DISPLACEMENT INST
3189,1,0
3220,1,0
3185,1,0
3195,1,0
3193,1,0
3222,1,0
3184,1,0
3194,1,0
3181,1,0
3180,1,0
3068,1,0
3047,1,0
3178,1,0
3179,1,0
3175,1,0
3045,1,0
3177,1,0
2878,1,0
3081,1,0
3058,1,0
** ... 6592 like lines cut
*EXTRACTION, NODE
CenterDisplacement,Unknown,Rough,0
3190
3189
2536
2232
2420
2513
2668
2893
2990
3007
3054
3091
3193
3075
2850
2554
2292
2457
2312
2311
** ... 231 like lines cut
*EXTRACTION, NODE
CenterDisplacement,Unknown,Rough,3
3190
3189
2536
2232
2420
2513
2668
2893
2990
3007
3054
3091
3193
3075
2850
2554
2292
2457
2312
2311
** ... 231 like lines cut
*END SOLVER
*MATERIAL, name=Mat1
*Density
1000
*Linear-Poroelastic
1000000000.0,0.3,0.0
*ExtraDof
*DarcyLaw
3.75e-05,1e-05,0.333,0.0
*List of Elements
All
*INITIAL CONDITIONS EXTRADOF
0.0
*END